16
SynMol
H    0.000   0.000   0.000
H    0.000   1.000   0.000
H    1.000   0.000   0.000
H    1.000   1.000   0.000
H    2.000   0.000   0.000
H    2.000   1.000   0.000
H    3.000   0.000   0.000
H    3.000   1.000   0.000
H    0.000   0.000   1.000
H    0.000   1.000   1.000
H    1.000   0.000   1.000
H    1.000   1.000   1.000
H    2.000   0.000   1.000
H    2.000   1.000   1.000
H    3.000   0.000   1.000
H    3.000   1.000   1.000
